# generated using pymatgen
data_Ca2BrN
_symmetry_space_group_name_H-M   'P 1'
_cell_length_a   3.72435890
_cell_length_b   3.72435890
_cell_length_c   20.79465265
_cell_angle_alpha   90.00000000
_cell_angle_beta   90.00000000
_cell_angle_gamma   120.00000000
_symmetry_Int_Tables_number   1
_chemical_formula_structural   Ca2BrN
_chemical_formula_sum   'Ca6 Br3 N3'
_cell_volume   249.79592701
_cell_formula_units_Z   3
loop_
 _symmetry_equiv_pos_site_id
 _symmetry_equiv_pos_as_xyz
  1  'x, y, z'
loop_
 _atom_site_type_symbol
 _atom_site_label
 _atom_site_symmetry_multiplicity
 _atom_site_fract_x
 _atom_site_fract_y
 _atom_site_fract_z
 _atom_site_occupancy
  Ca  Ca0  1  0.333333  0.666667  0.892090  1.0
  Ca  Ca1  1  0.000000  0.000000  0.774576  1.0
  Ca  Ca2  1  0.000000  0.000000  0.225424  1.0
  Ca  Ca3  1  0.666667  0.333333  0.107910  1.0
  Ca  Ca4  1  0.666667  0.333333  0.558757  1.0
  Ca  Ca5  1  0.333333  0.666667  0.441243  1.0
  Br  Br6  1  0.000000  0.000000  0.000000  1.0
  Br  Br7  1  0.666667  0.333333  0.333333  1.0
  Br  Br8  1  0.333333  0.666667  0.666667  1.0
  N  N9  1  0.666667  0.333333  0.833333  1.0
  N  N10  1  0.333333  0.666667  0.166667  1.0
  N  N11  1  0.000000  0.000000  0.500000  1.0
